data_Li-LSXw-EMIM
_audit_creation_date              2022-02-18
_audit_creation_method            'Materials Studio'
_symmetry_space_group_name_H-M    'P1'
_symmetry_Int_Tables_number       1
_symmetry_cell_setting            triclinic
loop_
_symmetry_equiv_pos_as_xyz
  x,y,z
_cell_length_a                    25.6957
_cell_length_b                    25.6957
_cell_length_c                    25.6957
_cell_angle_alpha                 90.0000
_cell_angle_beta                  90.0000
_cell_angle_gamma                 90.0000
loop_
_atom_site_label
_atom_site_type_symbol
_atom_site_fract_x
_atom_site_fract_y
_atom_site_fract_z
_atom_site_U_iso_or_equiv
_atom_site_adp_type
_atom_site_occupancy
Si1    Si    0.95200   0.12460   0.03760   0.00000  Uiso   1.00
Si2    Si    0.04800   0.87540   0.96240   0.00000  Uiso   1.00
Si3    Si    0.29800   0.12540   0.03760   0.00000  Uiso   1.00
Si4    Si    0.70200   0.87460   0.96240   0.00000  Uiso   1.00
Si5    Si    0.29800   0.12460   0.21240   0.00000  Uiso   1.00
Si6    Si    0.70200   0.87540   0.78760   0.00000  Uiso   1.00
Si7    Si    0.95200   0.12540   0.21240   0.00000  Uiso   1.00
Si8    Si    0.04800   0.87460   0.78760   0.00000  Uiso   1.00
Si9    Si    0.03760   0.95200   0.12460   0.00000  Uiso   1.00
Si10   Si    0.96240   0.04800   0.87540   0.00000  Uiso   1.00
Si11   Si    0.03760   0.29800   0.12540   0.00000  Uiso   1.00
Si12   Si    0.96240   0.70200   0.87460   0.00000  Uiso   1.00
Si13   Si    0.21240   0.29800   0.12460   0.00000  Uiso   1.00
Si14   Si    0.78760   0.70200   0.87540   0.00000  Uiso   1.00
Si15   Si    0.21240   0.95200   0.12540   0.00000  Uiso   1.00
Si16   Si    0.78760   0.04800   0.87460   0.00000  Uiso   1.00
Si17   Si    0.12460   0.03760   0.95200   0.00000  Uiso   1.00
Si18   Si    0.87540   0.96240   0.04800   0.00000  Uiso   1.00
Si19   Si    0.12540   0.03760   0.29800   0.00000  Uiso   1.00
Si20   Si    0.87460   0.96240   0.70200   0.00000  Uiso   1.00
Si21   Si    0.12460   0.21240   0.29800   0.00000  Uiso   1.00
Si22   Si    0.87540   0.78760   0.70200   0.00000  Uiso   1.00
Si23   Si    0.12540   0.21240   0.95200   0.00000  Uiso   1.00
Si24   Si    0.87460   0.78760   0.04800   0.00000  Uiso   1.00
Si25   Si    0.95200   0.62460   0.53760   0.00000  Uiso   1.00
Si26   Si    0.04800   0.37540   0.46240   0.00000  Uiso   1.00
Si27   Si    0.29800   0.62540   0.53760   0.00000  Uiso   1.00
Si28   Si    0.70200   0.37460   0.46240   0.00000  Uiso   1.00
Si29   Si    0.29800   0.62460   0.71240   0.00000  Uiso   1.00
Si30   Si    0.70200   0.37540   0.28760   0.00000  Uiso   1.00
Si31   Si    0.95200   0.62540   0.71240   0.00000  Uiso   1.00
Si32   Si    0.04800   0.37460   0.28760   0.00000  Uiso   1.00
Si33   Si    0.03760   0.45200   0.62460   0.00000  Uiso   1.00
Si34   Si    0.96240   0.54800   0.37540   0.00000  Uiso   1.00
Si35   Si    0.03760   0.79800   0.62540   0.00000  Uiso   1.00
Si36   Si    0.96240   0.20200   0.37460   0.00000  Uiso   1.00
Si37   Si    0.21240   0.79800   0.62460   0.00000  Uiso   1.00
Si38   Si    0.78760   0.20200   0.37540   0.00000  Uiso   1.00
Si39   Si    0.21240   0.45200   0.62540   0.00000  Uiso   1.00
Si40   Si    0.78760   0.54800   0.37460   0.00000  Uiso   1.00
Si41   Si    0.12460   0.53760   0.45200   0.00000  Uiso   1.00
Si42   Si    0.87540   0.46240   0.54800   0.00000  Uiso   1.00
Si43   Si    0.12540   0.53760   0.79800   0.00000  Uiso   1.00
Si44   Si    0.87460   0.46240   0.20200   0.00000  Uiso   1.00
Si45   Si    0.12460   0.71240   0.79800   0.00000  Uiso   1.00
Si46   Si    0.87540   0.28760   0.20200   0.00000  Uiso   1.00
Si47   Si    0.12540   0.71240   0.45200   0.00000  Uiso   1.00
Si48   Si    0.87460   0.28760   0.54800   0.00000  Uiso   1.00
Si49   Si    0.45200   0.12460   0.53760   0.00000  Uiso   1.00
Si50   Si    0.54800   0.87540   0.46240   0.00000  Uiso   1.00
Si51   Si    0.79800   0.12540   0.53760   0.00000  Uiso   1.00
Si52   Si    0.20200   0.87460   0.46240   0.00000  Uiso   1.00
Si53   Si    0.79800   0.12460   0.71240   0.00000  Uiso   1.00
Si54   Si    0.20200   0.87540   0.28760   0.00000  Uiso   1.00
Si55   Si    0.45200   0.12540   0.71240   0.00000  Uiso   1.00
Si56   Si    0.54800   0.87460   0.28760   0.00000  Uiso   1.00
Si57   Si    0.53760   0.95200   0.62460   0.00000  Uiso   1.00
Si58   Si    0.46240   0.04800   0.37540   0.00000  Uiso   1.00
Si59   Si    0.53760   0.29800   0.62540   0.00000  Uiso   1.00
Si60   Si    0.46240   0.70200   0.37460   0.00000  Uiso   1.00
Si61   Si    0.71240   0.29800   0.62460   0.00000  Uiso   1.00
Si62   Si    0.28760   0.70200   0.37540   0.00000  Uiso   1.00
Si63   Si    0.71240   0.95200   0.62540   0.00000  Uiso   1.00
Si64   Si    0.28760   0.04800   0.37460   0.00000  Uiso   1.00
Si65   Si    0.62460   0.03760   0.45200   0.00000  Uiso   1.00
Si66   Si    0.37540   0.96240   0.54800   0.00000  Uiso   1.00
Si67   Si    0.62540   0.03760   0.79800   0.00000  Uiso   1.00
Si68   Si    0.37460   0.96240   0.20200   0.00000  Uiso   1.00
Si69   Si    0.62460   0.21240   0.79800   0.00000  Uiso   1.00
Si70   Si    0.37540   0.78760   0.20200   0.00000  Uiso   1.00
Si71   Si    0.62540   0.21240   0.45200   0.00000  Uiso   1.00
Si72   Si    0.37460   0.78760   0.54800   0.00000  Uiso   1.00
Si73   Si    0.45200   0.62460   0.03760   0.00000  Uiso   1.00
Si74   Si    0.54800   0.37540   0.96240   0.00000  Uiso   1.00
Si75   Si    0.79800   0.62540   0.03760   0.00000  Uiso   1.00
Si76   Si    0.20200   0.37460   0.96240   0.00000  Uiso   1.00
Si77   Si    0.79800   0.62460   0.21240   0.00000  Uiso   1.00
Si78   Si    0.20200   0.37540   0.78760   0.00000  Uiso   1.00
Si79   Si    0.45200   0.62540   0.21240   0.00000  Uiso   1.00
Si80   Si    0.54800   0.37460   0.78760   0.00000  Uiso   1.00
Si81   Si    0.53760   0.45200   0.12460   0.00000  Uiso   1.00
Si82   Si    0.46240   0.54800   0.87540   0.00000  Uiso   1.00
Si83   Si    0.53760   0.79800   0.12540   0.00000  Uiso   1.00
Si84   Si    0.46240   0.20200   0.87460   0.00000  Uiso   1.00
Si85   Si    0.71240   0.79800   0.12460   0.00000  Uiso   1.00
Si86   Si    0.28760   0.20200   0.87540   0.00000  Uiso   1.00
Si87   Si    0.71240   0.45200   0.12540   0.00000  Uiso   1.00
Si88   Si    0.28760   0.54800   0.87460   0.00000  Uiso   1.00
Si89   Si    0.62460   0.53760   0.95200   0.00000  Uiso   1.00
Si90   Si    0.37540   0.46240   0.04800   0.00000  Uiso   1.00
Si91   Si    0.62540   0.53760   0.29800   0.00000  Uiso   1.00
Si92   Si    0.37460   0.46240   0.70200   0.00000  Uiso   1.00
Si93   Si    0.62460   0.71240   0.29800   0.00000  Uiso   1.00
Si94   Si    0.37540   0.28760   0.70200   0.00000  Uiso   1.00
Si95   Si    0.62540   0.71240   0.95200   0.00000  Uiso   1.00
Si96   Si    0.37460   0.28760   0.04800   0.00000  Uiso   1.00
Al97   Al    0.94890   0.03780   0.12240   0.00000  Uiso   1.00
Al98   Al    0.05110   0.96220   0.87760   0.00000  Uiso   1.00
Al99   Al    0.30110   0.21220   0.12240   0.00000  Uiso   1.00
Al100  Al    0.69890   0.78780   0.87760   0.00000  Uiso   1.00
Al101  Al    0.30110   0.03780   0.12760   0.00000  Uiso   1.00
Al102  Al    0.69890   0.96220   0.87240   0.00000  Uiso   1.00
Al103  Al    0.94890   0.21220   0.12760   0.00000  Uiso   1.00
Al104  Al    0.05110   0.78780   0.87240   0.00000  Uiso   1.00
Al105  Al    0.12240   0.94890   0.03780   0.00000  Uiso   1.00
Al106  Al    0.87760   0.05110   0.96220   0.00000  Uiso   1.00
Al107  Al    0.12240   0.30110   0.21220   0.00000  Uiso   1.00
Al108  Al    0.87760   0.69890   0.78780   0.00000  Uiso   1.00
Al109  Al    0.12760   0.30110   0.03780   0.00000  Uiso   1.00
Al110  Al    0.87240   0.69890   0.96220   0.00000  Uiso   1.00
Al111  Al    0.12760   0.94890   0.21220   0.00000  Uiso   1.00
Al112  Al    0.87240   0.05110   0.78780   0.00000  Uiso   1.00
Al113  Al    0.03780   0.12240   0.94890   0.00000  Uiso   1.00
Al114  Al    0.96220   0.87760   0.05110   0.00000  Uiso   1.00
Al115  Al    0.21220   0.12240   0.30110   0.00000  Uiso   1.00
Al116  Al    0.78780   0.87760   0.69890   0.00000  Uiso   1.00
Al117  Al    0.03780   0.12760   0.30110   0.00000  Uiso   1.00
Al118  Al    0.96220   0.87240   0.69890   0.00000  Uiso   1.00
Al119  Al    0.21220   0.12760   0.94890   0.00000  Uiso   1.00
Al120  Al    0.78780   0.87240   0.05110   0.00000  Uiso   1.00
Al121  Al    0.94890   0.53780   0.62240   0.00000  Uiso   1.00
Al122  Al    0.05110   0.46220   0.37760   0.00000  Uiso   1.00
Al123  Al    0.30110   0.71220   0.62240   0.00000  Uiso   1.00
Al124  Al    0.69890   0.28780   0.37760   0.00000  Uiso   1.00
Al125  Al    0.30110   0.53780   0.62760   0.00000  Uiso   1.00
Al126  Al    0.69890   0.46220   0.37240   0.00000  Uiso   1.00
Al127  Al    0.94890   0.71220   0.62760   0.00000  Uiso   1.00
Al128  Al    0.05110   0.28780   0.37240   0.00000  Uiso   1.00
Al129  Al    0.12240   0.44890   0.53780   0.00000  Uiso   1.00
Al130  Al    0.87760   0.55110   0.46220   0.00000  Uiso   1.00
Al131  Al    0.12240   0.80110   0.71220   0.00000  Uiso   1.00
Al132  Al    0.87760   0.19890   0.28780   0.00000  Uiso   1.00
Al133  Al    0.12760   0.80110   0.53780   0.00000  Uiso   1.00
Al134  Al    0.87240   0.19890   0.46220   0.00000  Uiso   1.00
Al135  Al    0.12760   0.44890   0.71220   0.00000  Uiso   1.00
Al136  Al    0.87240   0.55110   0.28780   0.00000  Uiso   1.00
Al137  Al    0.03780   0.62240   0.44890   0.00000  Uiso   1.00
Al138  Al    0.96220   0.37760   0.55110   0.00000  Uiso   1.00
Al139  Al    0.21220   0.62240   0.80110   0.00000  Uiso   1.00
Al140  Al    0.78780   0.37760   0.19890   0.00000  Uiso   1.00
Al141  Al    0.03780   0.62760   0.80110   0.00000  Uiso   1.00
Al142  Al    0.96220   0.37240   0.19890   0.00000  Uiso   1.00
Al143  Al    0.21220   0.62760   0.44890   0.00000  Uiso   1.00
Al144  Al    0.78780   0.37240   0.55110   0.00000  Uiso   1.00
Al145  Al    0.44890   0.03780   0.62240   0.00000  Uiso   1.00
Al146  Al    0.55110   0.96220   0.37760   0.00000  Uiso   1.00
Al147  Al    0.80110   0.21220   0.62240   0.00000  Uiso   1.00
Al148  Al    0.19890   0.78780   0.37760   0.00000  Uiso   1.00
Al149  Al    0.80110   0.03780   0.62760   0.00000  Uiso   1.00
Al150  Al    0.19890   0.96220   0.37240   0.00000  Uiso   1.00
Al151  Al    0.44890   0.21220   0.62760   0.00000  Uiso   1.00
Al152  Al    0.55110   0.78780   0.37240   0.00000  Uiso   1.00
Al153  Al    0.62240   0.94890   0.53780   0.00000  Uiso   1.00
Al154  Al    0.37760   0.05110   0.46220   0.00000  Uiso   1.00
Al155  Al    0.62240   0.30110   0.71220   0.00000  Uiso   1.00
Al156  Al    0.37760   0.69890   0.28780   0.00000  Uiso   1.00
Al157  Al    0.62760   0.30110   0.53780   0.00000  Uiso   1.00
Al158  Al    0.37240   0.69890   0.46220   0.00000  Uiso   1.00
Al159  Al    0.62760   0.94890   0.71220   0.00000  Uiso   1.00
Al160  Al    0.37240   0.05110   0.28780   0.00000  Uiso   1.00
Al161  Al    0.53780   0.12240   0.44890   0.00000  Uiso   1.00
Al162  Al    0.46220   0.87760   0.55110   0.00000  Uiso   1.00
Al163  Al    0.71220   0.12240   0.80110   0.00000  Uiso   1.00
Al164  Al    0.28780   0.87760   0.19890   0.00000  Uiso   1.00
Al165  Al    0.53780   0.12760   0.80110   0.00000  Uiso   1.00
Al166  Al    0.46220   0.87240   0.19890   0.00000  Uiso   1.00
Al167  Al    0.71220   0.12760   0.44890   0.00000  Uiso   1.00
Al168  Al    0.28780   0.87240   0.55110   0.00000  Uiso   1.00
Al169  Al    0.44890   0.53780   0.12240   0.00000  Uiso   1.00
Al170  Al    0.55110   0.46220   0.87760   0.00000  Uiso   1.00
Al171  Al    0.80110   0.71220   0.12240   0.00000  Uiso   1.00
Al172  Al    0.19890   0.28780   0.87760   0.00000  Uiso   1.00
Al173  Al    0.80110   0.53780   0.12760   0.00000  Uiso   1.00
Al174  Al    0.19890   0.46220   0.87240   0.00000  Uiso   1.00
Al175  Al    0.44890   0.71220   0.12760   0.00000  Uiso   1.00
Al176  Al    0.55110   0.28780   0.87240   0.00000  Uiso   1.00
Al177  Al    0.62240   0.44890   0.03780   0.00000  Uiso   1.00
Al178  Al    0.37760   0.55110   0.96220   0.00000  Uiso   1.00
Al179  Al    0.62240   0.80110   0.21220   0.00000  Uiso   1.00
Al180  Al    0.37760   0.19890   0.78780   0.00000  Uiso   1.00
Al181  Al    0.62760   0.80110   0.03780   0.00000  Uiso   1.00
Al182  Al    0.37240   0.19890   0.96220   0.00000  Uiso   1.00
Al183  Al    0.62760   0.44890   0.21220   0.00000  Uiso   1.00
Al184  Al    0.37240   0.55110   0.78780   0.00000  Uiso   1.00
Al185  Al    0.53780   0.62240   0.94890   0.00000  Uiso   1.00
Al186  Al    0.46220   0.37760   0.05110   0.00000  Uiso   1.00
Al187  Al    0.71220   0.62240   0.30110   0.00000  Uiso   1.00
Al188  Al    0.28780   0.37760   0.69890   0.00000  Uiso   1.00
Al189  Al    0.53780   0.62760   0.30110   0.00000  Uiso   1.00
Al190  Al    0.46220   0.37240   0.69890   0.00000  Uiso   1.00
Al191  Al    0.71220   0.62760   0.94890   0.00000  Uiso   1.00
Al192  Al    0.28780   0.37240   0.05110   0.00000  Uiso   1.00
O193   O     0.89550   0.00280   0.09720   0.00000  Uiso   1.00
O194   O     0.10450   0.99720   0.90280   0.00000  Uiso   1.00
O195   O     0.35450   0.24720   0.09720   0.00000  Uiso   1.00
O196   O     0.64550   0.75280   0.90280   0.00000  Uiso   1.00
O197   O     0.35450   0.00280   0.15280   0.00000  Uiso   1.00
O198   O     0.64550   0.99720   0.84720   0.00000  Uiso   1.00
O199   O     0.89550   0.24720   0.15280   0.00000  Uiso   1.00
O200   O     0.10450   0.75280   0.84720   0.00000  Uiso   1.00
O201   O     0.09720   0.89550   0.00280   0.00000  Uiso   1.00
O202   O     0.90280   0.10450   0.99720   0.00000  Uiso   1.00
O203   O     0.09720   0.35450   0.24720   0.00000  Uiso   1.00
O204   O     0.90280   0.64550   0.75280   0.00000  Uiso   1.00
O205   O     0.15280   0.35450   0.00280   0.00000  Uiso   1.00
O206   O     0.84720   0.64550   0.99720   0.00000  Uiso   1.00
O207   O     0.15280   0.89550   0.24720   0.00000  Uiso   1.00
O208   O     0.84720   0.10450   0.75280   0.00000  Uiso   1.00
O209   O     0.00280   0.09720   0.89550   0.00000  Uiso   1.00
O210   O     0.99720   0.90280   0.10450   0.00000  Uiso   1.00
O211   O     0.24720   0.09720   0.35450   0.00000  Uiso   1.00
O212   O     0.75280   0.90280   0.64550   0.00000  Uiso   1.00
O213   O     0.00280   0.15280   0.35450   0.00000  Uiso   1.00
O214   O     0.99720   0.84720   0.64550   0.00000  Uiso   1.00
O215   O     0.24720   0.15280   0.89550   0.00000  Uiso   1.00
O216   O     0.75280   0.84720   0.10450   0.00000  Uiso   1.00
O217   O     0.89550   0.50280   0.59720   0.00000  Uiso   1.00
O218   O     0.10450   0.49720   0.40280   0.00000  Uiso   1.00
O219   O     0.35450   0.74720   0.59720   0.00000  Uiso   1.00
O220   O     0.64550   0.25280   0.40280   0.00000  Uiso   1.00
O221   O     0.35450   0.50280   0.65280   0.00000  Uiso   1.00
O222   O     0.64550   0.49720   0.34720   0.00000  Uiso   1.00
O223   O     0.89550   0.74720   0.65280   0.00000  Uiso   1.00
O224   O     0.10450   0.25280   0.34720   0.00000  Uiso   1.00
O225   O     0.09720   0.39550   0.50280   0.00000  Uiso   1.00
O226   O     0.90280   0.60450   0.49720   0.00000  Uiso   1.00
O227   O     0.09720   0.85450   0.74720   0.00000  Uiso   1.00
O228   O     0.90280   0.14550   0.25280   0.00000  Uiso   1.00
O229   O     0.15280   0.85450   0.50280   0.00000  Uiso   1.00
O230   O     0.84720   0.14550   0.49720   0.00000  Uiso   1.00
O231   O     0.15280   0.39550   0.74720   0.00000  Uiso   1.00
O232   O     0.84720   0.60450   0.25280   0.00000  Uiso   1.00
O233   O     0.00280   0.59720   0.39550   0.00000  Uiso   1.00
O234   O     0.99720   0.40280   0.60450   0.00000  Uiso   1.00
O235   O     0.24720   0.59720   0.85450   0.00000  Uiso   1.00
O236   O     0.75280   0.40280   0.14550   0.00000  Uiso   1.00
O237   O     0.00280   0.65280   0.85450   0.00000  Uiso   1.00
O238   O     0.99720   0.34720   0.14550   0.00000  Uiso   1.00
O239   O     0.24720   0.65280   0.39550   0.00000  Uiso   1.00
O240   O     0.75280   0.34720   0.60450   0.00000  Uiso   1.00
O241   O     0.39550   0.00280   0.59720   0.00000  Uiso   1.00
O242   O     0.60450   0.99720   0.40280   0.00000  Uiso   1.00
O243   O     0.85450   0.24720   0.59720   0.00000  Uiso   1.00
O244   O     0.14550   0.75280   0.40280   0.00000  Uiso   1.00
O245   O     0.85450   0.00280   0.65280   0.00000  Uiso   1.00
O246   O     0.14550   0.99720   0.34720   0.00000  Uiso   1.00
O247   O     0.39550   0.24720   0.65280   0.00000  Uiso   1.00
O248   O     0.60450   0.75280   0.34720   0.00000  Uiso   1.00
O249   O     0.59720   0.89550   0.50280   0.00000  Uiso   1.00
O250   O     0.40280   0.10450   0.49720   0.00000  Uiso   1.00
O251   O     0.59720   0.35450   0.74720   0.00000  Uiso   1.00
O252   O     0.40280   0.64550   0.25280   0.00000  Uiso   1.00
O253   O     0.65280   0.35450   0.50280   0.00000  Uiso   1.00
O254   O     0.34720   0.64550   0.49720   0.00000  Uiso   1.00
O255   O     0.65280   0.89550   0.74720   0.00000  Uiso   1.00
O256   O     0.34720   0.10450   0.25280   0.00000  Uiso   1.00
O257   O     0.50280   0.09720   0.39550   0.00000  Uiso   1.00
O258   O     0.49720   0.90280   0.60450   0.00000  Uiso   1.00
O259   O     0.74720   0.09720   0.85450   0.00000  Uiso   1.00
O260   O     0.25280   0.90280   0.14550   0.00000  Uiso   1.00
O261   O     0.50280   0.15280   0.85450   0.00000  Uiso   1.00
O262   O     0.49720   0.84720   0.14550   0.00000  Uiso   1.00
O263   O     0.74720   0.15280   0.39550   0.00000  Uiso   1.00
O264   O     0.25280   0.84720   0.60450   0.00000  Uiso   1.00
O265   O     0.39550   0.50280   0.09720   0.00000  Uiso   1.00
O266   O     0.60450   0.49720   0.90280   0.00000  Uiso   1.00
O267   O     0.85450   0.74720   0.09720   0.00000  Uiso   1.00
O268   O     0.14550   0.25280   0.90280   0.00000  Uiso   1.00
O269   O     0.85450   0.50280   0.15280   0.00000  Uiso   1.00
O270   O     0.14550   0.49720   0.84720   0.00000  Uiso   1.00
O271   O     0.39550   0.74720   0.15280   0.00000  Uiso   1.00
O272   O     0.60450   0.25280   0.84720   0.00000  Uiso   1.00
O273   O     0.59720   0.39550   0.00280   0.00000  Uiso   1.00
O274   O     0.40280   0.60450   0.99720   0.00000  Uiso   1.00
O275   O     0.59720   0.85450   0.24720   0.00000  Uiso   1.00
O276   O     0.40280   0.14550   0.75280   0.00000  Uiso   1.00
O277   O     0.65280   0.85450   0.00280   0.00000  Uiso   1.00
O278   O     0.34720   0.14550   0.99720   0.00000  Uiso   1.00
O279   O     0.65280   0.39550   0.24720   0.00000  Uiso   1.00
O280   O     0.34720   0.60450   0.75280   0.00000  Uiso   1.00
O281   O     0.50280   0.59720   0.89550   0.00000  Uiso   1.00
O282   O     0.49720   0.40280   0.10450   0.00000  Uiso   1.00
O283   O     0.74720   0.59720   0.35450   0.00000  Uiso   1.00
O284   O     0.25280   0.40280   0.64550   0.00000  Uiso   1.00
O285   O     0.50280   0.65280   0.35450   0.00000  Uiso   1.00
O286   O     0.49720   0.34720   0.64550   0.00000  Uiso   1.00
O287   O     0.74720   0.65280   0.89550   0.00000  Uiso   1.00
O288   O     0.25280   0.34720   0.10450   0.00000  Uiso   1.00
O289   O     0.00010   0.99930   0.15330   0.00000  Uiso   1.00
O290   O     0.99990   0.00070   0.84670   0.00000  Uiso   1.00
O291   O     0.24990   0.25070   0.15330   0.00000  Uiso   1.00
O292   O     0.75010   0.74930   0.84670   0.00000  Uiso   1.00
O293   O     0.24990   0.99930   0.09670   0.00000  Uiso   1.00
O294   O     0.75010   0.00070   0.90330   0.00000  Uiso   1.00
O295   O     0.00010   0.25070   0.09670   0.00000  Uiso   1.00
O296   O     0.99990   0.74930   0.90330   0.00000  Uiso   1.00
O297   O     0.15330   0.00010   0.99930   0.00000  Uiso   1.00
O298   O     0.84670   0.99990   0.00070   0.00000  Uiso   1.00
O299   O     0.15330   0.24990   0.25070   0.00000  Uiso   1.00
O300   O     0.84670   0.75010   0.74930   0.00000  Uiso   1.00
O301   O     0.09670   0.24990   0.99930   0.00000  Uiso   1.00
O302   O     0.90330   0.75010   0.00070   0.00000  Uiso   1.00
O303   O     0.09670   0.00010   0.25070   0.00000  Uiso   1.00
O304   O     0.90330   0.99990   0.74930   0.00000  Uiso   1.00
O305   O     0.99930   0.15330   0.00010   0.00000  Uiso   1.00
O306   O     0.00070   0.84670   0.99990   0.00000  Uiso   1.00
O307   O     0.25070   0.15330   0.24990   0.00000  Uiso   1.00
O308   O     0.74930   0.84670   0.75010   0.00000  Uiso   1.00
O309   O     0.99930   0.09670   0.24990   0.00000  Uiso   1.00
O310   O     0.00070   0.90330   0.75010   0.00000  Uiso   1.00
O311   O     0.25070   0.09670   0.00010   0.00000  Uiso   1.00
O312   O     0.74930   0.90330   0.99990   0.00000  Uiso   1.00
O313   O     0.00010   0.49930   0.65330   0.00000  Uiso   1.00
O314   O     0.99990   0.50070   0.34670   0.00000  Uiso   1.00
O315   O     0.24990   0.75070   0.65330   0.00000  Uiso   1.00
O316   O     0.75010   0.24930   0.34670   0.00000  Uiso   1.00
O317   O     0.24990   0.49930   0.59670   0.00000  Uiso   1.00
O318   O     0.75010   0.50070   0.40330   0.00000  Uiso   1.00
O319   O     0.00010   0.75070   0.59670   0.00000  Uiso   1.00
O320   O     0.99990   0.24930   0.40330   0.00000  Uiso   1.00
O321   O     0.15330   0.50010   0.49930   0.00000  Uiso   1.00
O322   O     0.84670   0.49990   0.50070   0.00000  Uiso   1.00
O323   O     0.15330   0.74990   0.75070   0.00000  Uiso   1.00
O324   O     0.84670   0.25010   0.24930   0.00000  Uiso   1.00
O325   O     0.09670   0.74990   0.49930   0.00000  Uiso   1.00
O326   O     0.90330   0.25010   0.50070   0.00000  Uiso   1.00
O327   O     0.09670   0.50010   0.75070   0.00000  Uiso   1.00
O328   O     0.90330   0.49990   0.24930   0.00000  Uiso   1.00
O329   O     0.99930   0.65330   0.50010   0.00000  Uiso   1.00
O330   O     0.00070   0.34670   0.49990   0.00000  Uiso   1.00
O331   O     0.25070   0.65330   0.74990   0.00000  Uiso   1.00
O332   O     0.74930   0.34670   0.25010   0.00000  Uiso   1.00
O333   O     0.99930   0.59670   0.74990   0.00000  Uiso   1.00
O334   O     0.00070   0.40330   0.25010   0.00000  Uiso   1.00
O335   O     0.25070   0.59670   0.50010   0.00000  Uiso   1.00
O336   O     0.74930   0.40330   0.49990   0.00000  Uiso   1.00
O337   O     0.50010   0.99930   0.65330   0.00000  Uiso   1.00
O338   O     0.49990   0.00070   0.34670   0.00000  Uiso   1.00
O339   O     0.74990   0.25070   0.65330   0.00000  Uiso   1.00
O340   O     0.25010   0.74930   0.34670   0.00000  Uiso   1.00
O341   O     0.74990   0.99930   0.59670   0.00000  Uiso   1.00
O342   O     0.25010   0.00070   0.40330   0.00000  Uiso   1.00
O343   O     0.50010   0.25070   0.59670   0.00000  Uiso   1.00
O344   O     0.49990   0.74930   0.40330   0.00000  Uiso   1.00
O345   O     0.65330   0.00010   0.49930   0.00000  Uiso   1.00
O346   O     0.34670   0.99990   0.50070   0.00000  Uiso   1.00
O347   O     0.65330   0.24990   0.75070   0.00000  Uiso   1.00
O348   O     0.34670   0.75010   0.24930   0.00000  Uiso   1.00
O349   O     0.59670   0.24990   0.49930   0.00000  Uiso   1.00
O350   O     0.40330   0.75010   0.50070   0.00000  Uiso   1.00
O351   O     0.59670   0.00010   0.75070   0.00000  Uiso   1.00
O352   O     0.40330   0.99990   0.24930   0.00000  Uiso   1.00
O353   O     0.49930   0.15330   0.50010   0.00000  Uiso   1.00
O354   O     0.50070   0.84670   0.49990   0.00000  Uiso   1.00
O355   O     0.75070   0.15330   0.74990   0.00000  Uiso   1.00
O356   O     0.24930   0.84670   0.25010   0.00000  Uiso   1.00
O357   O     0.49930   0.09670   0.74990   0.00000  Uiso   1.00
O358   O     0.50070   0.90330   0.25010   0.00000  Uiso   1.00
O359   O     0.75070   0.09670   0.50010   0.00000  Uiso   1.00
O360   O     0.24930   0.90330   0.49990   0.00000  Uiso   1.00
O361   O     0.50010   0.49930   0.15330   0.00000  Uiso   1.00
O362   O     0.49990   0.50070   0.84670   0.00000  Uiso   1.00
O363   O     0.74990   0.75070   0.15330   0.00000  Uiso   1.00
O364   O     0.25010   0.24930   0.84670   0.00000  Uiso   1.00
O365   O     0.74990   0.49930   0.09670   0.00000  Uiso   1.00
O366   O     0.25010   0.50070   0.90330   0.00000  Uiso   1.00
O367   O     0.50010   0.75070   0.09670   0.00000  Uiso   1.00
O368   O     0.49990   0.24930   0.90330   0.00000  Uiso   1.00
O369   O     0.65330   0.50010   0.99930   0.00000  Uiso   1.00
O370   O     0.34670   0.49990   0.00070   0.00000  Uiso   1.00
O371   O     0.65330   0.74990   0.25070   0.00000  Uiso   1.00
O372   O     0.34670   0.25010   0.74930   0.00000  Uiso   1.00
O373   O     0.59670   0.74990   0.99930   0.00000  Uiso   1.00
O374   O     0.40330   0.25010   0.00070   0.00000  Uiso   1.00
O375   O     0.59670   0.50010   0.25070   0.00000  Uiso   1.00
O376   O     0.40330   0.49990   0.74930   0.00000  Uiso   1.00
O377   O     0.49930   0.65330   0.00010   0.00000  Uiso   1.00
O378   O     0.50070   0.34670   0.99990   0.00000  Uiso   1.00
O379   O     0.75070   0.65330   0.24990   0.00000  Uiso   1.00
O380   O     0.24930   0.34670   0.75010   0.00000  Uiso   1.00
O381   O     0.49930   0.59670   0.24990   0.00000  Uiso   1.00
O382   O     0.50070   0.40330   0.75010   0.00000  Uiso   1.00
O383   O     0.75070   0.59670   0.00010   0.00000  Uiso   1.00
O384   O     0.24930   0.40330   0.99990   0.00000  Uiso   1.00
O385   O     0.97800   0.07240   0.07020   0.00000  Uiso   1.00
O386   O     0.02200   0.92760   0.92980   0.00000  Uiso   1.00
O387   O     0.27200   0.17760   0.07020   0.00000  Uiso   1.00
O388   O     0.72800   0.82240   0.92980   0.00000  Uiso   1.00
O389   O     0.27200   0.07240   0.17980   0.00000  Uiso   1.00
O390   O     0.72800   0.92760   0.82020   0.00000  Uiso   1.00
O391   O     0.97800   0.17760   0.17980   0.00000  Uiso   1.00
O392   O     0.02200   0.82240   0.82020   0.00000  Uiso   1.00
O393   O     0.07020   0.97800   0.07240   0.00000  Uiso   1.00
O394   O     0.92980   0.02200   0.92760   0.00000  Uiso   1.00
O395   O     0.07020   0.27200   0.17760   0.00000  Uiso   1.00
O396   O     0.92980   0.72800   0.82240   0.00000  Uiso   1.00
O397   O     0.17980   0.27200   0.07240   0.00000  Uiso   1.00
O398   O     0.82020   0.72800   0.92760   0.00000  Uiso   1.00
O399   O     0.17980   0.97800   0.17760   0.00000  Uiso   1.00
O400   O     0.82020   0.02200   0.82240   0.00000  Uiso   1.00
O401   O     0.07240   0.07020   0.97800   0.00000  Uiso   1.00
O402   O     0.92760   0.92980   0.02200   0.00000  Uiso   1.00
O403   O     0.17760   0.07020   0.27200   0.00000  Uiso   1.00
O404   O     0.82240   0.92980   0.72800   0.00000  Uiso   1.00
O405   O     0.07240   0.17980   0.27200   0.00000  Uiso   1.00
O406   O     0.92760   0.82020   0.72800   0.00000  Uiso   1.00
O407   O     0.17760   0.17980   0.97800   0.00000  Uiso   1.00
O408   O     0.82240   0.82020   0.02200   0.00000  Uiso   1.00
O409   O     0.97800   0.57240   0.57020   0.00000  Uiso   1.00
O410   O     0.02200   0.42760   0.42980   0.00000  Uiso   1.00
O411   O     0.27200   0.67760   0.57020   0.00000  Uiso   1.00
O412   O     0.72800   0.32240   0.42980   0.00000  Uiso   1.00
O413   O     0.27200   0.57240   0.67980   0.00000  Uiso   1.00
O414   O     0.72800   0.42760   0.32020   0.00000  Uiso   1.00
O415   O     0.97800   0.67760   0.67980   0.00000  Uiso   1.00
O416   O     0.02200   0.32240   0.32020   0.00000  Uiso   1.00
O417   O     0.07020   0.47800   0.57240   0.00000  Uiso   1.00
O418   O     0.92980   0.52200   0.42760   0.00000  Uiso   1.00
O419   O     0.07020   0.77200   0.67760   0.00000  Uiso   1.00
O420   O     0.92980   0.22800   0.32240   0.00000  Uiso   1.00
O421   O     0.17980   0.77200   0.57240   0.00000  Uiso   1.00
O422   O     0.82020   0.22800   0.42760   0.00000  Uiso   1.00
O423   O     0.17980   0.47800   0.67760   0.00000  Uiso   1.00
O424   O     0.82020   0.52200   0.32240   0.00000  Uiso   1.00
O425   O     0.07240   0.57020   0.47800   0.00000  Uiso   1.00
O426   O     0.92760   0.42980   0.52200   0.00000  Uiso   1.00
O427   O     0.17760   0.57020   0.77200   0.00000  Uiso   1.00
O428   O     0.82240   0.42980   0.22800   0.00000  Uiso   1.00
O429   O     0.07240   0.67980   0.77200   0.00000  Uiso   1.00
O430   O     0.92760   0.32020   0.22800   0.00000  Uiso   1.00
O431   O     0.17760   0.67980   0.47800   0.00000  Uiso   1.00
O432   O     0.82240   0.32020   0.52200   0.00000  Uiso   1.00
O433   O     0.47800   0.07240   0.57020   0.00000  Uiso   1.00
O434   O     0.52200   0.92760   0.42980   0.00000  Uiso   1.00
O435   O     0.77200   0.17760   0.57020   0.00000  Uiso   1.00
O436   O     0.22800   0.82240   0.42980   0.00000  Uiso   1.00
O437   O     0.77200   0.07240   0.67980   0.00000  Uiso   1.00
O438   O     0.22800   0.92760   0.32020   0.00000  Uiso   1.00
O439   O     0.47800   0.17760   0.67980   0.00000  Uiso   1.00
O440   O     0.52200   0.82240   0.32020   0.00000  Uiso   1.00
O441   O     0.57020   0.97800   0.57240   0.00000  Uiso   1.00
O442   O     0.42980   0.02200   0.42760   0.00000  Uiso   1.00
O443   O     0.57020   0.27200   0.67760   0.00000  Uiso   1.00
O444   O     0.42980   0.72800   0.32240   0.00000  Uiso   1.00
O445   O     0.67980   0.27200   0.57240   0.00000  Uiso   1.00
O446   O     0.32020   0.72800   0.42760   0.00000  Uiso   1.00
O447   O     0.67980   0.97800   0.67760   0.00000  Uiso   1.00
O448   O     0.32020   0.02200   0.32240   0.00000  Uiso   1.00
O449   O     0.57240   0.07020   0.47800   0.00000  Uiso   1.00
O450   O     0.42760   0.92980   0.52200   0.00000  Uiso   1.00
O451   O     0.67760   0.07020   0.77200   0.00000  Uiso   1.00
O452   O     0.32240   0.92980   0.22800   0.00000  Uiso   1.00
O453   O     0.57240   0.17980   0.77200   0.00000  Uiso   1.00
O454   O     0.42760   0.82020   0.22800   0.00000  Uiso   1.00
O455   O     0.67760   0.17980   0.47800   0.00000  Uiso   1.00
O456   O     0.32240   0.82020   0.52200   0.00000  Uiso   1.00
O457   O     0.47800   0.57240   0.07020   0.00000  Uiso   1.00
O458   O     0.52200   0.42760   0.92980   0.00000  Uiso   1.00
O459   O     0.77200   0.67760   0.07020   0.00000  Uiso   1.00
O460   O     0.22800   0.32240   0.92980   0.00000  Uiso   1.00
O461   O     0.77200   0.57240   0.17980   0.00000  Uiso   1.00
O462   O     0.22800   0.42760   0.82020   0.00000  Uiso   1.00
O463   O     0.47800   0.67760   0.17980   0.00000  Uiso   1.00
O464   O     0.52200   0.32240   0.82020   0.00000  Uiso   1.00
O465   O     0.57020   0.47800   0.07240   0.00000  Uiso   1.00
O466   O     0.42980   0.52200   0.92760   0.00000  Uiso   1.00
O467   O     0.57020   0.77200   0.17760   0.00000  Uiso   1.00
O468   O     0.42980   0.22800   0.82240   0.00000  Uiso   1.00
O469   O     0.67980   0.77200   0.07240   0.00000  Uiso   1.00
O470   O     0.32020   0.22800   0.92760   0.00000  Uiso   1.00
O471   O     0.67980   0.47800   0.17760   0.00000  Uiso   1.00
O472   O     0.32020   0.52200   0.82240   0.00000  Uiso   1.00
O473   O     0.57240   0.57020   0.97800   0.00000  Uiso   1.00
O474   O     0.42760   0.42980   0.02200   0.00000  Uiso   1.00
O475   O     0.67760   0.57020   0.27200   0.00000  Uiso   1.00
O476   O     0.32240   0.42980   0.72800   0.00000  Uiso   1.00
O477   O     0.57240   0.67980   0.27200   0.00000  Uiso   1.00
O478   O     0.42760   0.32020   0.72800   0.00000  Uiso   1.00
O479   O     0.67760   0.67980   0.97800   0.00000  Uiso   1.00
O480   O     0.32240   0.32020   0.02200   0.00000  Uiso   1.00
O481   O     0.92580   0.08120   0.17110   0.00000  Uiso   1.00
O482   O     0.07420   0.91880   0.82890   0.00000  Uiso   1.00
O483   O     0.32420   0.16880   0.17110   0.00000  Uiso   1.00
O484   O     0.67580   0.83120   0.82890   0.00000  Uiso   1.00
O485   O     0.32420   0.08120   0.07890   0.00000  Uiso   1.00
O486   O     0.67580   0.91880   0.92110   0.00000  Uiso   1.00
O487   O     0.92580   0.16880   0.07890   0.00000  Uiso   1.00
O488   O     0.07420   0.83120   0.92110   0.00000  Uiso   1.00
O489   O     0.17110   0.92580   0.08120   0.00000  Uiso   1.00
O490   O     0.82890   0.07420   0.91880   0.00000  Uiso   1.00
O491   O     0.17110   0.32420   0.16880   0.00000  Uiso   1.00
O492   O     0.82890   0.67580   0.83120   0.00000  Uiso   1.00
O493   O     0.07890   0.32420   0.08120   0.00000  Uiso   1.00
O494   O     0.92110   0.67580   0.91880   0.00000  Uiso   1.00
O495   O     0.07890   0.92580   0.16880   0.00000  Uiso   1.00
O496   O     0.92110   0.07420   0.83120   0.00000  Uiso   1.00
O497   O     0.08120   0.17110   0.92580   0.00000  Uiso   1.00
O498   O     0.91880   0.82890   0.07420   0.00000  Uiso   1.00
O499   O     0.16880   0.17110   0.32420   0.00000  Uiso   1.00
O500   O     0.83120   0.82890   0.67580   0.00000  Uiso   1.00
O501   O     0.08120   0.07890   0.32420   0.00000  Uiso   1.00
O502   O     0.91880   0.92110   0.67580   0.00000  Uiso   1.00
O503   O     0.16880   0.07890   0.92580   0.00000  Uiso   1.00
O504   O     0.83120   0.92110   0.07420   0.00000  Uiso   1.00
O505   O     0.92580   0.58120   0.67110   0.00000  Uiso   1.00
O506   O     0.07420   0.41880   0.32890   0.00000  Uiso   1.00
O507   O     0.32420   0.66880   0.67110   0.00000  Uiso   1.00
O508   O     0.67580   0.33120   0.32890   0.00000  Uiso   1.00
O509   O     0.32420   0.58120   0.57890   0.00000  Uiso   1.00
O510   O     0.67580   0.41880   0.42110   0.00000  Uiso   1.00
O511   O     0.92580   0.66880   0.57890   0.00000  Uiso   1.00
O512   O     0.07420   0.33120   0.42110   0.00000  Uiso   1.00
O513   O     0.17110   0.42580   0.58120   0.00000  Uiso   1.00
O514   O     0.82890   0.57420   0.41880   0.00000  Uiso   1.00
O515   O     0.17110   0.82420   0.66880   0.00000  Uiso   1.00
O516   O     0.82890   0.17580   0.33120   0.00000  Uiso   1.00
O517   O     0.07890   0.82420   0.58120   0.00000  Uiso   1.00
O518   O     0.92110   0.17580   0.41880   0.00000  Uiso   1.00
O519   O     0.07890   0.42580   0.66880   0.00000  Uiso   1.00
O520   O     0.92110   0.57420   0.33120   0.00000  Uiso   1.00
O521   O     0.08120   0.67110   0.42580   0.00000  Uiso   1.00
O522   O     0.91880   0.32890   0.57420   0.00000  Uiso   1.00
O523   O     0.16880   0.67110   0.82420   0.00000  Uiso   1.00
O524   O     0.83120   0.32890   0.17580   0.00000  Uiso   1.00
O525   O     0.08120   0.57890   0.82420   0.00000  Uiso   1.00
O526   O     0.91880   0.42110   0.17580   0.00000  Uiso   1.00
O527   O     0.16880   0.57890   0.42580   0.00000  Uiso   1.00
O528   O     0.83120   0.42110   0.57420   0.00000  Uiso   1.00
O529   O     0.42580   0.08120   0.67110   0.00000  Uiso   1.00
O530   O     0.57420   0.91880   0.32890   0.00000  Uiso   1.00
O531   O     0.82420   0.16880   0.67110   0.00000  Uiso   1.00
O532   O     0.17580   0.83120   0.32890   0.00000  Uiso   1.00
O533   O     0.82420   0.08120   0.57890   0.00000  Uiso   1.00
O534   O     0.17580   0.91880   0.42110   0.00000  Uiso   1.00
O535   O     0.42580   0.16880   0.57890   0.00000  Uiso   1.00
O536   O     0.57420   0.83120   0.42110   0.00000  Uiso   1.00
O537   O     0.67110   0.92580   0.58120   0.00000  Uiso   1.00
O538   O     0.32890   0.07420   0.41880   0.00000  Uiso   1.00
O539   O     0.67110   0.32420   0.66880   0.00000  Uiso   1.00
O540   O     0.32890   0.67580   0.33120   0.00000  Uiso   1.00
O541   O     0.57890   0.32420   0.58120   0.00000  Uiso   1.00
O542   O     0.42110   0.67580   0.41880   0.00000  Uiso   1.00
O543   O     0.57890   0.92580   0.66880   0.00000  Uiso   1.00
O544   O     0.42110   0.07420   0.33120   0.00000  Uiso   1.00
O545   O     0.58120   0.17110   0.42580   0.00000  Uiso   1.00
O546   O     0.41880   0.82890   0.57420   0.00000  Uiso   1.00
O547   O     0.66880   0.17110   0.82420   0.00000  Uiso   1.00
O548   O     0.33120   0.82890   0.17580   0.00000  Uiso   1.00
O549   O     0.58120   0.07890   0.82420   0.00000  Uiso   1.00
O550   O     0.41880   0.92110   0.17580   0.00000  Uiso   1.00
O551   O     0.66880   0.07890   0.42580   0.00000  Uiso   1.00
O552   O     0.33120   0.92110   0.57420   0.00000  Uiso   1.00
O553   O     0.42580   0.58120   0.17110   0.00000  Uiso   1.00
O554   O     0.57420   0.41880   0.82890   0.00000  Uiso   1.00
O555   O     0.82420   0.66880   0.17110   0.00000  Uiso   1.00
O556   O     0.17580   0.33120   0.82890   0.00000  Uiso   1.00
O557   O     0.82420   0.58120   0.07890   0.00000  Uiso   1.00
O558   O     0.17580   0.41880   0.92110   0.00000  Uiso   1.00
O559   O     0.42580   0.66880   0.07890   0.00000  Uiso   1.00
O560   O     0.57420   0.33120   0.92110   0.00000  Uiso   1.00
O561   O     0.67110   0.42580   0.08120   0.00000  Uiso   1.00
O562   O     0.32890   0.57420   0.91880   0.00000  Uiso   1.00
O563   O     0.67110   0.82420   0.16880   0.00000  Uiso   1.00
O564   O     0.32890   0.17580   0.83120   0.00000  Uiso   1.00
O565   O     0.57890   0.82420   0.08120   0.00000  Uiso   1.00
O566   O     0.42110   0.17580   0.91880   0.00000  Uiso   1.00
O567   O     0.57890   0.42580   0.16880   0.00000  Uiso   1.00
O568   O     0.42110   0.57420   0.83120   0.00000  Uiso   1.00
O569   O     0.58120   0.67110   0.92580   0.00000  Uiso   1.00
O570   O     0.41880   0.32890   0.07420   0.00000  Uiso   1.00
O571   O     0.66880   0.67110   0.32420   0.00000  Uiso   1.00
O572   O     0.33120   0.32890   0.67580   0.00000  Uiso   1.00
O573   O     0.58120   0.57890   0.32420   0.00000  Uiso   1.00
O574   O     0.41880   0.42110   0.67580   0.00000  Uiso   1.00
O575   O     0.66880   0.57890   0.92580   0.00000  Uiso   1.00
O576   O     0.33120   0.42110   0.07420   0.00000  Uiso   1.00
Li577  Li    0.04660   0.04660   0.04660   0.00000  Uiso   1.00
Li578  Li    0.95340   0.95340   0.95340   0.00000  Uiso   1.00
Li579  Li    0.79660   0.79660   0.95340   0.00000  Uiso   1.00
Li580  Li    0.20340   0.04660   0.20340   0.00000  Uiso   1.00
Li581  Li    0.79660   0.95340   0.79660   0.00000  Uiso   1.00
Li582  Li    0.04660   0.20340   0.20340   0.00000  Uiso   1.00
Li583  Li    0.95340   0.79660   0.79660   0.00000  Uiso   1.00
Li584  Li    0.04660   0.54660   0.54660   0.00000  Uiso   1.00
Li585  Li    0.95340   0.45340   0.45340   0.00000  Uiso   1.00
Li586  Li    0.20340   0.70340   0.54660   0.00000  Uiso   1.00
Li587  Li    0.79660   0.29660   0.45340   0.00000  Uiso   1.00
Li588  Li    0.79660   0.45340   0.29660   0.00000  Uiso   1.00
Li589  Li    0.04660   0.70340   0.70340   0.00000  Uiso   1.00
Li590  Li    0.95340   0.29660   0.29660   0.00000  Uiso   1.00
Li591  Li    0.45340   0.95340   0.45340   0.00000  Uiso   1.00
Li592  Li    0.70340   0.20340   0.54660   0.00000  Uiso   1.00
Li593  Li    0.29660   0.79660   0.45340   0.00000  Uiso   1.00
Li594  Li    0.70340   0.04660   0.70340   0.00000  Uiso   1.00
Li595  Li    0.29660   0.95340   0.29660   0.00000  Uiso   1.00
Li596  Li    0.54660   0.54660   0.04660   0.00000  Uiso   1.00
Li597  Li    0.29660   0.29660   0.95340   0.00000  Uiso   1.00
Li598  Li    0.70340   0.54660   0.20340   0.00000  Uiso   1.00
Li599  Li    0.54660   0.70340   0.20340   0.00000  Uiso   1.00
Li600  Li    0.45340   0.29660   0.79660   0.00000  Uiso   1.00
Li601  Li    0.22320   0.22320   0.22320   0.00000  Uiso   1.00
Li602  Li    0.77680   0.77680   0.77680   0.00000  Uiso   1.00
Li603  Li    0.02680   0.02680   0.22320   0.00000  Uiso   1.00
Li604  Li    0.97320   0.97320   0.77680   0.00000  Uiso   1.00
Li605  Li    0.02680   0.22320   0.02680   0.00000  Uiso   1.00
Li606  Li    0.97320   0.77680   0.97320   0.00000  Uiso   1.00
Li607  Li    0.22320   0.02680   0.02680   0.00000  Uiso   1.00
Li608  Li    0.77680   0.97320   0.97320   0.00000  Uiso   1.00
Li609  Li    0.77680   0.27680   0.27680   0.00000  Uiso   1.00
Li610  Li    0.97320   0.47320   0.27680   0.00000  Uiso   1.00
Li611  Li    0.97320   0.27680   0.47320   0.00000  Uiso   1.00
Li612  Li    0.22320   0.52680   0.52680   0.00000  Uiso   1.00
Li613  Li    0.72320   0.22320   0.72320   0.00000  Uiso   1.00
Li614  Li    0.47320   0.97320   0.27680   0.00000  Uiso   1.00
Li615  Li    0.52680   0.22320   0.52680   0.00000  Uiso   1.00
Li616  Li    0.72320   0.02680   0.52680   0.00000  Uiso   1.00
Li617  Li    0.27680   0.97320   0.47320   0.00000  Uiso   1.00
Li618  Li    0.72320   0.72320   0.22320   0.00000  Uiso   1.00
Li619  Li    0.52680   0.52680   0.22320   0.00000  Uiso   1.00
Li620  Li    0.47320   0.47320   0.77680   0.00000  Uiso   1.00
Li621  Li    0.27680   0.47320   0.97320   0.00000  Uiso   1.00
Li622  Li    0.13700   0.15100   0.87800   0.00000  Uiso   1.00
Li623  Li    0.13700   0.59900   0.87200   0.00000  Uiso   1.00
Li624  Li    0.38700   0.84900   0.12800   0.00000  Uiso   1.00
Li625  Li    0.61300   0.15100   0.87200   0.00000  Uiso   1.00
Li626  Li    0.12200   0.38700   0.40100   0.00000  Uiso   1.00
Li627  Li    0.87800   0.61300   0.59900   0.00000  Uiso   1.00
Li628  Li    0.12200   0.86300   0.84900   0.00000  Uiso   1.00
Li629  Li    0.87200   0.61300   0.15100   0.00000  Uiso   1.00
Li630  Li    0.40100   0.12200   0.38700   0.00000  Uiso   1.00
Li631  Li    0.59900   0.87800   0.61300   0.00000  Uiso   1.00
Li632  Li    0.15100   0.87800   0.13700   0.00000  Uiso   1.00
Li633  Li    0.40100   0.12800   0.86300   0.00000  Uiso   1.00
Li634  Li    0.84900   0.12800   0.38700   0.00000  Uiso   1.00
Li635  Li    0.61300   0.09900   0.37800   0.00000  Uiso   1.00
Li636  Li    0.86300   0.90100   0.62800   0.00000  Uiso   1.00
Li637  Li    0.13700   0.09900   0.37200   0.00000  Uiso   1.00
Li638  Li    0.61300   0.65100   0.37200   0.00000  Uiso   1.00
Li639  Li    0.12200   0.88700   0.90100   0.00000  Uiso   1.00
Li640  Li    0.87800   0.11300   0.09900   0.00000  Uiso   1.00
Li641  Li    0.12200   0.36300   0.34900   0.00000  Uiso   1.00
Li642  Li    0.87800   0.63700   0.65100   0.00000  Uiso   1.00
Li643  Li    0.87200   0.63700   0.09900   0.00000  Uiso   1.00
Li644  Li    0.87200   0.11300   0.65100   0.00000  Uiso   1.00
Li645  Li    0.40100   0.62800   0.36300   0.00000  Uiso   1.00
Li646  Li    0.59900   0.37200   0.63700   0.00000  Uiso   1.00
Li647  Li    0.88700   0.40100   0.62200   0.00000  Uiso   1.00
Li648  Li    0.11300   0.59900   0.37800   0.00000  Uiso   1.00
Li649  Li    0.36300   0.84900   0.62200   0.00000  Uiso   1.00
Li650  Li    0.63700   0.15100   0.37800   0.00000  Uiso   1.00
Li651  Li    0.36300   0.40100   0.62800   0.00000  Uiso   1.00
Li652  Li    0.88700   0.84900   0.62800   0.00000  Uiso   1.00
Li653  Li    0.11300   0.15100   0.37200   0.00000  Uiso   1.00
Li654  Li    0.37800   0.13700   0.65100   0.00000  Uiso   1.00
Li655  Li    0.62800   0.86300   0.90100   0.00000  Uiso   1.00
Li656  Li    0.37200   0.13700   0.09900   0.00000  Uiso   1.00
Li657  Li    0.62800   0.38700   0.34900   0.00000  Uiso   1.00
Li658  Li    0.34900   0.12200   0.36300   0.00000  Uiso   1.00
Li659  Li    0.65100   0.87800   0.63700   0.00000  Uiso   1.00
Li660  Li    0.90100   0.12800   0.36300   0.00000  Uiso   1.00
Li661  Li    0.09900   0.87200   0.63700   0.00000  Uiso   1.00
Li662  Li    0.36300   0.34900   0.12200   0.00000  Uiso   1.00
Li663  Li    0.63700   0.65100   0.87800   0.00000  Uiso   1.00
Li664  Li    0.36300   0.90100   0.12800   0.00000  Uiso   1.00
Li665  Li    0.11300   0.65100   0.87200   0.00000  Uiso   1.00
Li666  Li    0.37800   0.11300   0.59900   0.00000  Uiso   1.00
Li667  Li    0.62200   0.36300   0.84900   0.00000  Uiso   1.00
Li668  Li    0.62800   0.36300   0.40100   0.00000  Uiso   1.00
Li669  Li    0.37200   0.11300   0.15100   0.00000  Uiso   1.00
Li670  Li    0.90100   0.62200   0.38700   0.00000  Uiso   1.00
Li671  Li    0.90100   0.62800   0.86300   0.00000  Uiso   1.00
Li672  Li    0.65100   0.37200   0.61300   0.00000  Uiso   1.00
loop_
_geom_bond_atom_site_label_1
_geom_bond_atom_site_label_2
_geom_bond_distance
_geom_bond_site_symmetry_2
_ccdc_geom_bond_type
Si1    O305    1.717   .     S
Si1    O385    1.717   .     S
Si1    O487    1.694   .     S
Si1    O202    1.715   1_554 S
Si2    O306    1.717   .     S
Si2    O386    1.717   .     S
Si2    O488    1.694   .     S
Si2    O201    1.715   1_556 S
Si3    O311    1.717   .     S
Si3    O387    1.717   .     S
Si3    O485    1.694   .     S
Si3    O278    1.715   1_554 S
Si4    O312    1.717   .     S
Si4    O388    1.717   .     S
Si4    O486    1.694   .     S
Si4    O277    1.715   1_556 S
Si5    O256    1.715   .     S
Si5    O307    1.717   .     S
Si5    O389    1.717   .     S
Si5    O483    1.694   .     S
Si6    O255    1.715   .     S
Si6    O308    1.717   .     S
Si6    O390    1.717   .     S
Si6    O484    1.694   .     S
Si7    O228    1.715   .     S
Si7    O309    1.717   .     S
Si7    O391    1.717   .     S
Si7    O481    1.694   .     S
Si8    O227    1.715   .     S
Si8    O310    1.717   .     S
Si8    O392    1.717   .     S
Si8    O482    1.694   .     S
Si9    O289    1.717   .     S
Si9    O393    1.717   .     S
Si9    O495    1.694   .     S
Si9    O210    1.715   1_455 S
Si10   O290    1.717   .     S
Si10   O394    1.717   .     S
Si10   O496    1.694   .     S
Si10   O209    1.715   1_655 S
Si11   O295    1.717   .     S
Si11   O395    1.717   .     S
Si11   O493    1.694   .     S
Si11   O238    1.715   1_455 S
Si12   O296    1.717   .     S
Si12   O396    1.717   .     S
Si12   O494    1.694   .     S
Si12   O237    1.715   1_655 S
Si13   O288    1.715   .     S
Si13   O291    1.717   .     S
Si13   O397    1.717   .     S
Si13   O491    1.694   .     S
Si14   O287    1.715   .     S
Si14   O292    1.717   .     S
Si14   O398    1.717   .     S
Si14   O492    1.694   .     S
Si15   O260    1.715   .     S
Si15   O293    1.717   .     S
Si15   O399    1.717   .     S
Si15   O489    1.694   .     S
Si16   O259    1.715   .     S
Si16   O294    1.717   .     S
Si16   O400    1.717   .     S
Si16   O490    1.694   .     S
Si17   O297    1.717   .     S
Si17   O401    1.717   .     S
Si17   O503    1.694   .     S
Si17   O194    1.715   1_545 S
Si18   O298    1.717   .     S
Si18   O402    1.717   .     S
Si18   O504    1.694   .     S
Si18   O193    1.715   1_565 S
Si19   O303    1.717   .     S
Si19   O403    1.717   .     S
Si19   O501    1.694   .     S
Si19   O246    1.715   1_545 S
Si20   O304    1.717   .     S
Si20   O404    1.717   .     S
Si20   O502    1.694   .     S
Si20   O245    1.715   1_565 S
Si21   O224    1.715   .     S
Si21   O299    1.717   .     S
Si21   O405    1.717   .     S
Si21   O499    1.694   .     S
Si22   O223    1.715   .     S
Si22   O300    1.717   .     S
Si22   O406    1.717   .     S
Si22   O500    1.694   .     S
Si23   O268    1.715   .     S
Si23   O301    1.717   .     S
Si23   O407    1.717   .     S
Si23   O497    1.694   .     S
Si24   O267    1.715   .     S
Si24   O302    1.717   .     S
Si24   O408    1.717   .     S
Si24   O498    1.694   .     S
Si25   O226    1.715   .     S
Si25   O329    1.717   .     S
Si25   O409    1.717   .     S
Si25   O511    1.694   .     S
Si26   O225    1.715   .     S
Si26   O330    1.717   .     S
Si26   O410    1.717   .     S
Si26   O512    1.694   .     S
Si27   O254    1.715   .     S
Si27   O335    1.717   .     S
Si27   O411    1.717   .     S
Si27   O509    1.694   .     S
Si28   O253    1.715   .     S
Si28   O336    1.717   .     S
Si28   O412    1.717   .     S
Si28   O510    1.694   .     S
Si29   O280    1.715   .     S
Si29   O331    1.717   .     S
Si29   O413    1.717   .     S
Si29   O507    1.694   .     S
Si30   O279    1.715   .     S
Si30   O332    1.717   .     S
Si30   O414    1.717   .     S
Si30   O508    1.694   .     S
Si31   O204    1.715   .     S
Si31   O333    1.717   .     S
Si31   O415    1.717   .     S
Si31   O505    1.694   .     S
Si32   O203    1.715   .     S
Si32   O334    1.717   .     S
Si32   O416    1.717   .     S
Si32   O506    1.694   .     S
Si33   O313    1.717   .     S
Si33   O417    1.717   .     S
Si33   O519    1.694   .     S
Si33   O234    1.715   1_455 S
Si34   O314    1.717   .     S
Si34   O418    1.717   .     S
Si34   O520    1.694   .     S
Si34   O233    1.715   1_655 S
Si35   O319    1.717   .     S
Si35   O419    1.717   .     S
Si35   O517    1.694   .     S
Si35   O214    1.715   1_455 S
Si36   O320    1.717   .     S
Si36   O420    1.717   .     S
Si36   O518    1.694   .     S
Si36   O213    1.715   1_655 S
Si37   O264    1.715   .     S
Si37   O315    1.717   .     S
Si37   O421    1.717   .     S
Si37   O515    1.694   .     S
Si38   O263    1.715   .     S
Si38   O316    1.717   .     S
Si38   O422    1.717   .     S
Si38   O516    1.694   .     S
Si39   O284    1.715   .     S
Si39   O317    1.717   .     S
Si39   O423    1.717   .     S
Si39   O513    1.694   .     S
Si40   O283    1.715   .     S
Si40   O318    1.717   .     S
Si40   O424    1.717   .     S
Si40   O514    1.694   .     S
Si41   O218    1.715   .     S
Si41   O321    1.717   .     S
Si41   O425    1.717   .     S
Si41   O527    1.694   .     S
Si42   O217    1.715   .     S
Si42   O322    1.717   .     S
Si42   O426    1.717   .     S
Si42   O528    1.694   .     S
Si43   O270    1.715   .     S
Si43   O327    1.717   .     S
Si43   O427    1.717   .     S
Si43   O525    1.694   .     S
Si44   O269    1.715   .     S
Si44   O328    1.717   .     S
Si44   O428    1.717   .     S
Si44   O526    1.694   .     S
Si45   O200    1.715   .     S
Si45   O323    1.717   .     S
Si45   O429    1.717   .     S
Si45   O523    1.694   .     S
Si46   O199    1.715   .     S
Si46   O324    1.717   .     S
Si46   O430    1.717   .     S
Si46   O524    1.694   .     S
Si47   O244    1.715   .     S
Si47   O325    1.717   .     S
Si47   O431    1.717   .     S
Si47   O521    1.694   .     S
Si48   O243    1.715   .     S
Si48   O326    1.717   .     S
Si48   O432    1.717   .     S
Si48   O522    1.694   .     S
Si49   O250    1.715   .     S
Si49   O353    1.717   .     S
Si49   O433    1.717   .     S
Si49   O535    1.694   .     S
Si50   O249    1.715   .     S
Si50   O354    1.717   .     S
Si50   O434    1.717   .     S
Si50   O536    1.694   .     S
Si51   O230    1.715   .     S
Si51   O359    1.717   .     S
Si51   O435    1.717   .     S
Si51   O533    1.694   .     S
Si52   O229    1.715   .     S
Si52   O360    1.717   .     S
Si52   O436    1.717   .     S
Si52   O534    1.694   .     S
Si53   O208    1.715   .     S
Si53   O355    1.717   .     S
Si53   O437    1.717   .     S
Si53   O531    1.694   .     S
Si54   O207    1.715   .     S
Si54   O356    1.717   .     S
Si54   O438    1.717   .     S
Si54   O532    1.694   .     S
Si55   O276    1.715   .     S
Si55   O357    1.717   .     S
Si55   O439    1.717   .     S
Si55   O529    1.694   .     S
Si56   O275    1.715   .     S
Si56   O358    1.717   .     S
Si56   O440    1.717   .     S
Si56   O530    1.694   .     S
Si57   O258    1.715   .     S
Si57   O337    1.717   .     S
Si57   O441    1.717   .     S
Si57   O543    1.694   .     S
Si58   O257    1.715   .     S
Si58   O338    1.717   .     S
Si58   O442    1.717   .     S
Si58   O544    1.694   .     S
Si59   O286    1.715   .     S
Si59   O343    1.717   .     S
Si59   O443    1.717   .     S
Si59   O541    1.694   .     S
Si60   O285    1.715   .     S
Si60   O344    1.717   .     S
Si60   O444    1.717   .     S
Si60   O542    1.694   .     S
Si61   O240    1.715   .     S
Si61   O339    1.717   .     S
Si61   O445    1.717   .     S
Si61   O539    1.694   .     S
Si62   O239    1.715   .     S
Si62   O340    1.717   .     S
Si62   O446    1.717   .     S
Si62   O540    1.694   .     S
Si63   O212    1.715   .     S
Si63   O341    1.717   .     S
Si63   O447    1.717   .     S
Si63   O537    1.694   .     S
Si64   O211    1.715   .     S
Si64   O342    1.717   .     S
Si64   O448    1.717   .     S
Si64   O538    1.694   .     S
Si65   O345    1.717   .     S
Si65   O449    1.717   .     S
Si65   O551    1.694   .     S
Si65   O242    1.715   1_545 S
Si66   O346    1.717   .     S
Si66   O450    1.717   .     S
Si66   O552    1.694   .     S
Si66   O241    1.715   1_565 S
Si67   O351    1.717   .     S
Si67   O451    1.717   .     S
Si67   O549    1.694   .     S
Si67   O198    1.715   1_545 S
Si68   O352    1.717   .     S
Si68   O452    1.717   .     S
Si68   O550    1.694   .     S
Si68   O197    1.715   1_565 S
Si69   O272    1.715   .     S
Si69   O347    1.717   .     S
Si69   O453    1.717   .     S
Si69   O547    1.694   .     S
Si70   O271    1.715   .     S
Si70   O348    1.717   .     S
Si70   O454    1.717   .     S
Si70   O548    1.694   .     S
Si71   O220    1.715   .     S
Si71   O349    1.717   .     S
Si71   O455    1.717   .     S
Si71   O545    1.694   .     S
Si72   O219    1.715   .     S
Si72   O350    1.717   .     S
Si72   O456    1.717   .     S
Si72   O546    1.694   .     S
Si73   O377    1.717   .     S
Si73   O457    1.717   .     S
Si73   O559    1.694   .     S
Si73   O274    1.715   1_554 S
Si74   O378    1.717   .     S
Si74   O458    1.717   .     S
Si74   O560    1.694   .     S
Si74   O273    1.715   1_556 S
Si75   O383    1.717   .     S
Si75   O459    1.717   .     S
Si75   O557    1.694   .     S
Si75   O206    1.715   1_554 S
Si76   O384    1.717   .     S
Si76   O460    1.717   .     S
Si76   O558    1.694   .     S
Si76   O205    1.715   1_556 S
Si77   O232    1.715   .     S
Si77   O379    1.717   .     S
Si77   O461    1.717   .     S
Si77   O555    1.694   .     S
Si78   O231    1.715   .     S
Si78   O380    1.717   .     S
Si78   O462    1.717   .     S
Si78   O556    1.694   .     S
Si79   O252    1.715   .     S
Si79   O381    1.717   .     S
Si79   O463    1.717   .     S
Si79   O553    1.694   .     S
Si80   O251    1.715   .     S
Si80   O382    1.717   .     S
Si80   O464    1.717   .     S
Si80   O554    1.694   .     S
Si81   O282    1.715   .     S
Si81   O361    1.717   .     S
Si81   O465    1.717   .     S
Si81   O567    1.694   .     S
Si82   O281    1.715   .     S
Si82   O362    1.717   .     S
Si82   O466    1.717   .     S
Si82   O568    1.694   .     S
Si83   O262    1.715   .     S
Si83   O367    1.717   .     S
Si83   O467    1.717   .     S
Si83   O565    1.694   .     S
Si84   O261    1.715   .     S
Si84   O368    1.717   .     S
Si84   O468    1.717   .     S
Si84   O566    1.694   .     S
Si85   O216    1.715   .     S
Si85   O363    1.717   .     S
Si85   O469    1.717   .     S
Si85   O563    1.694   .     S
Si86   O215    1.715   .     S
Si86   O364    1.717   .     S
Si86   O470    1.717   .     S
Si86   O564    1.694   .     S
Si87   O236    1.715   .     S
Si87   O365    1.717   .     S
Si87   O471    1.717   .     S
Si87   O561    1.694   .     S
Si88   O235    1.715   .     S
Si88   O366    1.717   .     S
Si88   O472    1.717   .     S
Si88   O562    1.694   .     S
Si89   O266    1.715   .     S
Si89   O369    1.717   .     S
Si89   O473    1.717   .     S
Si89   O575    1.694   .     S
Si90   O265    1.715   .     S
Si90   O370    1.717   .     S
Si90   O474    1.717   .     S
Si90   O576    1.694   .     S
Si91   O222    1.715   .     S
Si91   O375    1.717   .     S
Si91   O475    1.717   .     S
Si91   O573    1.694   .     S
Si92   O221    1.715   .     S
Si92   O376    1.717   .     S
Si92   O476    1.717   .     S
Si92   O574    1.694   .     S
Si93   O248    1.715   .     S
Si93   O371    1.717   .     S
Si93   O477    1.717   .     S
Si93   O571    1.694   .     S
Si94   O247    1.715   .     S
Si94   O372    1.717   .     S
Si94   O478    1.717   .     S
Si94   O572    1.694   .     S
Si95   O196    1.715   .     S
Si95   O373    1.717   .     S
Si95   O479    1.717   .     S
Si95   O569    1.694   .     S
Si96   O195    1.715   .     S
Si96   O374    1.717   .     S
Si96   O480    1.717   .     S
Si96   O570    1.694   .     S
Al97   O193    1.764   .     S
Al97   O385    1.774   .     S
Al97   O481    1.778   .     S
Al97   O289    1.828   1_645 S
Al98   O194    1.764   .     S
Al98   O386    1.774   .     S
Al98   O482    1.778   .     S
Al98   O290    1.828   1_465 S
Al99   O195    1.764   .     S
Al99   O291    1.828   .     S
Al99   O387    1.774   .     S
Al99   O483    1.778   .     S
Al100  O196    1.764   .     S
Al100  O292    1.828   .     S
Al100  O388    1.774   .     S
Al100  O484    1.778   .     S
Al101  O197    1.764   .     S
Al101  O389    1.774   .     S
Al101  O485    1.778   .     S
Al101  O293    1.828   1_545 S
Al102  O198    1.764   .     S
Al102  O390    1.774   .     S
Al102  O486    1.778   .     S
Al102  O294    1.828   1_565 S
Al103  O199    1.764   .     S
Al103  O391    1.774   .     S
Al103  O487    1.778   .     S
Al103  O295    1.828   1_655 S
Al104  O200    1.764   .     S
Al104  O392    1.774   .     S
Al104  O488    1.778   .     S
Al104  O296    1.828   1_455 S
Al105  O201    1.764   .     S
Al105  O393    1.774   .     S
Al105  O489    1.778   .     S
Al105  O297    1.828   1_564 S
Al106  O202    1.764   .     S
Al106  O394    1.774   .     S
Al106  O490    1.778   .     S
Al106  O298    1.828   1_546 S
Al107  O203    1.764   .     S
Al107  O299    1.828   .     S
Al107  O395    1.774   .     S
Al107  O491    1.778   .     S
Al108  O204    1.764   .     S
Al108  O300    1.828   .     S
Al108  O396    1.774   .     S
Al108  O492    1.778   .     S
Al109  O205    1.764   .     S
Al109  O397    1.774   .     S
Al109  O493    1.778   .     S
Al109  O301    1.828   1_554 S
Al110  O206    1.764   .     S
Al110  O398    1.774   .     S
Al110  O494    1.778   .     S
Al110  O302    1.828   1_556 S
Al111  O207    1.764   .     S
Al111  O399    1.774   .     S
Al111  O495    1.778   .     S
Al111  O303    1.828   1_565 S
Al112  O208    1.764   .     S
Al112  O400    1.774   .     S
Al112  O496    1.778   .     S
Al112  O304    1.828   1_545 S
Al113  O209    1.764   .     S
Al113  O401    1.774   .     S
Al113  O497    1.778   .     S
Al113  O305    1.828   1_456 S
Al114  O210    1.764   .     S
Al114  O402    1.774   .     S
Al114  O498    1.778   .     S
Al114  O306    1.828   1_654 S
Al115  O211    1.764   .     S
Al115  O307    1.828   .     S
Al115  O403    1.774   .     S
Al115  O499    1.778   .     S
Al116  O212    1.764   .     S
Al116  O308    1.828   .     S
Al116  O404    1.774   .     S
Al116  O500    1.778   .     S
Al117  O213    1.764   .     S
Al117  O405    1.774   .     S
Al117  O501    1.778   .     S
Al117  O309    1.828   1_455 S
Al118  O214    1.764   .     S
Al118  O406    1.774   .     S
Al118  O502    1.778   .     S
Al118  O310    1.828   1_655 S
Al119  O215    1.764   .     S
Al119  O407    1.774   .     S
Al119  O503    1.778   .     S
Al119  O311    1.828   1_556 S
Al120  O216    1.764   .     S
Al120  O408    1.774   .     S
Al120  O504    1.778   .     S
Al120  O312    1.828   1_554 S
Al121  O217    1.764   .     S
Al121  O409    1.774   .     S
Al121  O505    1.778   .     S
Al121  O313    1.828   1_655 S
Al122  O218    1.764   .     S
Al122  O410    1.774   .     S
Al122  O506    1.778   .     S
Al122  O314    1.828   1_455 S
Al123  O219    1.764   .     S
Al123  O315    1.828   .     S
Al123  O411    1.774   .     S
Al123  O507    1.778   .     S
Al124  O220    1.764   .     S
Al124  O316    1.828   .     S
Al124  O412    1.774   .     S
Al124  O508    1.778   .     S
Al125  O221    1.764   .     S
Al125  O317    1.828   .     S
Al125  O413    1.774   .     S
Al125  O509    1.778   .     S
Al126  O222    1.764   .     S
Al126  O318    1.828   .     S
Al126  O414    1.774   .     S
Al126  O510    1.778   .     S
Al127  O223    1.764   .     S
Al127  O415    1.774   .     S
Al127  O511    1.778   .     S
Al127  O319    1.828   1_655 S
Al128  O224    1.764   .     S
Al128  O416    1.774   .     S
Al128  O512    1.778   .     S
Al128  O320    1.828   1_455 S
Al129  O225    1.764   .     S
Al129  O321    1.828   .     S
Al129  O417    1.774   .     S
Al129  O513    1.778   .     S
Al130  O226    1.764   .     S
Al130  O322    1.828   .     S
Al130  O418    1.774   .     S
Al130  O514    1.778   .     S
Al131  O227    1.764   .     S
Al131  O323    1.828   .     S
Al131  O419    1.774   .     S
Al131  O515    1.778   .     S
Al132  O228    1.764   .     S
Al132  O324    1.828   .     S
Al132  O420    1.774   .     S
Al132  O516    1.778   .     S
Al133  O229    1.764   .     S
Al133  O325    1.828   .     S
Al133  O421    1.774   .     S
Al133  O517    1.778   .     S
Al134  O230    1.764   .     S
Al134  O326    1.828   .     S
Al134  O422    1.774   .     S
Al134  O518    1.778   .     S
Al135  O231    1.764   .     S
Al135  O327    1.828   .     S
Al135  O423    1.774   .     S
Al135  O519    1.778   .     S
Al136  O232    1.764   .     S
Al136  O328    1.828   .     S
Al136  O424    1.774   .     S
Al136  O520    1.778   .     S
Al137  O233    1.764   .     S
Al137  O425    1.774   .     S
Al137  O521    1.778   .     S
Al137  O329    1.828   1_455 S
Al138  O234    1.764   .     S
Al138  O426    1.774   .     S
Al138  O522    1.778   .     S
Al138  O330    1.828   1_655 S
Al139  O235    1.764   .     S
Al139  O331    1.828   .     S
Al139  O427    1.774   .     S
Al139  O523    1.778   .     S
Al140  O236    1.764   .     S
Al140  O332    1.828   .     S
Al140  O428    1.774   .     S
Al140  O524    1.778   .     S
Al141  O237    1.764   .     S
Al141  O429    1.774   .     S
Al141  O525    1.778   .     S
Al141  O333    1.828   1_455 S
Al142  O238    1.764   .     S
Al142  O430    1.774   .     S
Al142  O526    1.778   .     S
Al142  O334    1.828   1_655 S
Al143  O239    1.764   .     S
Al143  O335    1.828   .     S
Al143  O431    1.774   .     S
Al143  O527    1.778   .     S
Al144  O240    1.764   .     S
Al144  O336    1.828   .     S
Al144  O432    1.774   .     S
Al144  O528    1.778   .     S
Al145  O241    1.764   .     S
Al145  O433    1.774   .     S
Al145  O529    1.778   .     S
Al145  O337    1.828   1_545 S
Al146  O242    1.764   .     S
Al146  O434    1.774   .     S
Al146  O530    1.778   .     S
Al146  O338    1.828   1_565 S
Al147  O243    1.764   .     S
Al147  O339    1.828   .     S
Al147  O435    1.774   .     S
Al147  O531    1.778   .     S
Al148  O244    1.764   .     S
Al148  O340    1.828   .     S
Al148  O436    1.774   .     S
Al148  O532    1.778   .     S
Al149  O245    1.764   .     S
Al149  O437    1.774   .     S
Al149  O533    1.778   .     S
Al149  O341    1.828   1_545 S
Al150  O246    1.764   .     S
Al150  O438    1.774   .     S
Al150  O534    1.778   .     S
Al150  O342    1.828   1_565 S
Al151  O247    1.764   .     S
Al151  O343    1.828   .     S
Al151  O439    1.774   .     S
Al151  O535    1.778   .     S
Al152  O248    1.764   .     S
Al152  O344    1.828   .     S
Al152  O440    1.774   .     S
Al152  O536    1.778   .     S
Al153  O249    1.764   .     S
Al153  O441    1.774   .     S
Al153  O537    1.778   .     S
Al153  O345    1.828   1_565 S
Al154  O250    1.764   .     S
Al154  O442    1.774   .     S
Al154  O538    1.778   .     S
Al154  O346    1.828   1_545 S
Al155  O251    1.764   .     S
Al155  O347    1.828   .     S
Al155  O443    1.774   .     S
Al155  O539    1.778   .     S
Al156  O252    1.764   .     S
Al156  O348    1.828   .     S
Al156  O444    1.774   .     S
Al156  O540    1.778   .     S
Al157  O253    1.764   .     S
Al157  O349    1.828   .     S
Al157  O445    1.774   .     S
Al157  O541    1.778   .     S
Al158  O254    1.764   .     S
Al158  O350    1.828   .     S
Al158  O446    1.774   .     S
Al158  O542    1.778   .     S
Al159  O255    1.764   .     S
Al159  O447    1.774   .     S
Al159  O543    1.778   .     S
Al159  O351    1.828   1_565 S
Al160  O256    1.764   .     S
Al160  O448    1.774   .     S
Al160  O544    1.778   .     S
Al160  O352    1.828   1_545 S
Al161  O257    1.764   .     S
Al161  O353    1.828   .     S
Al161  O449    1.774   .     S
Al161  O545    1.778   .     S
Al162  O258    1.764   .     S
Al162  O354    1.828   .     S
Al162  O450    1.774   .     S
Al162  O546    1.778   .     S
Al163  O259    1.764   .     S
Al163  O355    1.828   .     S
Al163  O451    1.774   .     S
Al163  O547    1.778   .     S
Al164  O260    1.764   .     S
Al164  O356    1.828   .     S
Al164  O452    1.774   .     S
Al164  O548    1.778   .     S
Al165  O261    1.764   .     S
Al165  O357    1.828   .     S
Al165  O453    1.774   .     S
Al165  O549    1.778   .     S
Al166  O262    1.764   .     S
Al166  O358    1.828   .     S
Al166  O454    1.774   .     S
Al166  O550    1.778   .     S
Al167  O263    1.764   .     S
Al167  O359    1.828   .     S
Al167  O455    1.774   .     S
Al167  O551    1.778   .     S
Al168  O264    1.764   .     S
Al168  O360    1.828   .     S
Al168  O456    1.774   .     S
Al168  O552    1.778   .     S
Al169  O265    1.764   .     S
Al169  O361    1.828   .     S
Al169  O457    1.774   .     S
Al169  O553    1.778   .     S
Al170  O266    1.764   .     S
Al170  O362    1.828   .     S
Al170  O458    1.774   .     S
Al170  O554    1.778   .     S
Al171  O267    1.764   .     S
Al171  O363    1.828   .     S
Al171  O459    1.774   .     S
Al171  O555    1.778   .     S
Al172  O268    1.764   .     S
Al172  O364    1.828   .     S
Al172  O460    1.774   .     S
Al172  O556    1.778   .     S
Al173  O269    1.764   .     S
Al173  O365    1.828   .     S
Al173  O461    1.774   .     S
Al173  O557    1.778   .     S
Al174  O270    1.764   .     S
Al174  O366    1.828   .     S
Al174  O462    1.774   .     S
Al174  O558    1.778   .     S
Al175  O271    1.764   .     S
Al175  O367    1.828   .     S
Al175  O463    1.774   .     S
Al175  O559    1.778   .     S
Al176  O272    1.764   .     S
Al176  O368    1.828   .     S
Al176  O464    1.774   .     S
Al176  O560    1.778   .     S
Al177  O273    1.764   .     S
Al177  O465    1.774   .     S
Al177  O561    1.778   .     S
Al177  O369    1.828   1_554 S
Al178  O274    1.764   .     S
Al178  O466    1.774   .     S
Al178  O562    1.778   .     S
Al178  O370    1.828   1_556 S
Al179  O275    1.764   .     S
Al179  O371    1.828   .     S
Al179  O467    1.774   .     S
Al179  O563    1.778   .     S
Al180  O276    1.764   .     S
Al180  O372    1.828   .     S
Al180  O468    1.774   .     S
Al180  O564    1.778   .     S
Al181  O277    1.764   .     S
Al181  O469    1.774   .     S
Al181  O565    1.778   .     S
Al181  O373    1.828   1_554 S
Al182  O278    1.764   .     S
Al182  O470    1.774   .     S
Al182  O566    1.778   .     S
Al182  O374    1.828   1_556 S
Al183  O279    1.764   .     S
Al183  O375    1.828   .     S
Al183  O471    1.774   .     S
Al183  O567    1.778   .     S
Al184  O280    1.764   .     S
Al184  O376    1.828   .     S
Al184  O472    1.774   .     S
Al184  O568    1.778   .     S
Al185  O281    1.764   .     S
Al185  O473    1.774   .     S
Al185  O569    1.778   .     S
Al185  O377    1.828   1_556 S
Al186  O282    1.764   .     S
Al186  O474    1.774   .     S
Al186  O570    1.778   .     S
Al186  O378    1.828   1_554 S
Al187  O283    1.764   .     S
Al187  O379    1.828   .     S
Al187  O475    1.774   .     S
Al187  O571    1.778   .     S
Al188  O284    1.764   .     S
Al188  O380    1.828   .     S
Al188  O476    1.774   .     S
Al188  O572    1.778   .     S
Al189  O285    1.764   .     S
Al189  O381    1.828   .     S
Al189  O477    1.774   .     S
Al189  O573    1.778   .     S
Al190  O286    1.764   .     S
Al190  O382    1.828   .     S
Al190  O478    1.774   .     S
Al190  O574    1.778   .     S
Al191  O287    1.764   .     S
Al191  O479    1.774   .     S
Al191  O575    1.778   .     S
Al191  O383    1.828   1_556 S
Al192  O288    1.764   .     S
Al192  O480    1.774   .     S
Al192  O576    1.778   .     S
Al192  O384    1.828   1_554 S
O193   Si18    1.715   1_545 S
O194   Si17    1.715   1_565 S
O197   Si68    1.715   1_545 S
O198   Si67    1.715   1_565 S
O201   Si2     1.715   1_554 S
O202   Si1     1.715   1_556 S
O205   Si76    1.715   1_554 S
O206   Si75    1.715   1_556 S
O209   Si10    1.715   1_455 S
O210   Si9     1.715   1_655 S
O213   Si36    1.715   1_455 S
O214   Si35    1.715   1_655 S
O233   Si34    1.715   1_455 S
O234   Si33    1.715   1_655 S
O237   Si12    1.715   1_455 S
O238   Si11    1.715   1_655 S
O241   Si66    1.715   1_545 S
O242   Si65    1.715   1_565 S
O245   Si20    1.715   1_545 S
O246   Si19    1.715   1_565 S
O273   Si74    1.715   1_554 S
O274   Si73    1.715   1_556 S
O277   Si4     1.715   1_554 S
O278   Si3     1.715   1_556 S
O289   Al97    1.828   1_465 S
O290   Al98    1.828   1_645 S
O293   Al101   1.828   1_565 S
O294   Al102   1.828   1_545 S
O295   Al103   1.828   1_455 S
O296   Al104   1.828   1_655 S
O297   Al105   1.828   1_546 S
O298   Al106   1.828   1_564 S
O301   Al109   1.828   1_556 S
O302   Al110   1.828   1_554 S
O303   Al111   1.828   1_545 S
O304   Al112   1.828   1_565 S
O305   Al113   1.828   1_654 S
O306   Al114   1.828   1_456 S
O309   Al117   1.828   1_655 S
O310   Al118   1.828   1_455 S
O311   Al119   1.828   1_554 S
O312   Al120   1.828   1_556 S
O313   Al121   1.828   1_455 S
O314   Al122   1.828   1_655 S
O319   Al127   1.828   1_455 S
O320   Al128   1.828   1_655 S
O329   Al137   1.828   1_655 S
O330   Al138   1.828   1_455 S
O333   Al141   1.828   1_655 S
O334   Al142   1.828   1_455 S
O337   Al145   1.828   1_565 S
O338   Al146   1.828   1_545 S
O341   Al149   1.828   1_565 S
O342   Al150   1.828   1_545 S
O345   Al153   1.828   1_545 S
O346   Al154   1.828   1_565 S
O351   Al159   1.828   1_545 S
O352   Al160   1.828   1_565 S
O369   Al177   1.828   1_556 S
O370   Al178   1.828   1_554 S
O373   Al181   1.828   1_556 S
O374   Al182   1.828   1_554 S
O377   Al185   1.828   1_554 S
O378   Al186   1.828   1_556 S
O383   Al191   1.828   1_554 S
O384   Al192   1.828   1_556 S
